
*** ChampSim Multicore Out-of-Order Simulator ***

Warmup Instructions: 1000000
Simulation Instructions: 10000000
Number of CPUs: 1
LLC sets: 2048
LLC ways: 16
Off-chip DRAM Size: 4096 MB Channels: 1 Width: 64-bit Data Rate: 3200 MT/s

Assertion failed: (0), function main, file main.cc, line 675.
CPU 0 runs /Users/deeprajmajumdar/Downloads/Deepraj-Majumdar-Master-Root/Personal_Projects/Computer_Architecture_Project/ChampSim-master/dpc3_traces/parsec_2.1.blackscholes.simlarge.prebuilt.drop_4000M.length_216M.champsimtrace.xz
CPU 1 runs /Users/deeprajmajumdar/Downloads/Deepraj-Majumdar-Master-Root/Personal_Projects/Computer_Architecture_Project/ChampSim-master/dpc3_traces/parsec_2.1.bodytrack.simlarge.prebuilt.drop_2000M.length_250M.champsimtrace.xz

*** Too many traces for the configured number of cores ***

